cases/transmission/event_cases/case2383wp-excellent-pq-midday.m
%% MATPOWER Case Format : Version 2
function mpc = case2383wp
%   SCENARIO — Excellent PQ, midday plateau (diurnal hour 12, 95% load).
%   PQ vs ideal at bus 6: local ≈ 0.0015, global ≈ 0.0008.
mpc.version = '2';

%%-----  Power Flow Data  -----%%
%% system MVA base
mpc.baseMVA = 100;
%% bus data
%    bus_i    type    Pd    Qd    Gs    Bs    area    Vm    Va    baseKV    zone    Vmax    Vmin
mpc.bus = [
	1	1	0.0	0.0	0.0	0.0	1	1.0937245077942115	-1.0155411656145716	220.0	1	1.11	0.95				
	2	1	0.0	0.0	0.0	0.0	1	1.0829346932602015	-0.4815228107671676	220.0	1	1.11	0.95				
	3	1	0.0	0.0	0.0	0.0	1	1.079232994837879	-24.148870984240506	220.0	1	1.11	0.95				
	4	1	0.0	0.0	0.0	0.0	1	1.0714744988925196	-7.908642470511655	220.0	1	1.11	0.95				
	5	1	0.0	0.0	0.0	0.0	1	1.066770698839521	-18.548919664346272	220.0	1	1.11	0.95				
	6	1	0.0	0.0	0.0	0.0	1	1.022306707620516	-13.146600738327981	400.0	1	1.05	0.95				
	7	1	0.0	0.0	0.0	0.0	1	1.0601046163632528	-20.714178222322342	220.0	1	1.11	0.95				
	8	1	0.0	0.0	0.0	0.0	1	1.0244728117172368	-9.895108693526428	400.0	1	1.05	0.95				
	9	1	0.0	0.0	0.0	0.0	1	1.0355208846844848	-15.877773465016194	400.0	1	1.05	0.95				
	10	2	11.6185	8.549999999999999	0.0	0.0	1	1.1100000105956693	-18.877121098783434	220.0	1	1.11	0.95				
	11	1	0.0	0.0	0.0	0.0	1	1.0775963287827452	-6.494534796637471	220.0	1	1.11	0.95				
	12	1	0.0	0.0	0.0	0.0	1	1.0685831268691584	-23.161829018272638	220.0	1	1.11	0.95				
	13	1	0.0	0.0	0.0	0.0	1	1.0649031377721587	-20.778190181394915	220.0	1	1.11	0.95				
	14	1	0.0	0.0	0.0	0.0	1	1.0653171628853813	-4.494691956249097	220.0	1	1.11	0.95				
	15	1	0.0	0.0	0.0	0.0	1	1.0078684497275823	-14.818852100164515	400.0	1	1.05	0.95				
	16	2	52.136	95.0	0.0	0.0	1	1.0962758900303398	-0.5268743278938293	220.0	1	1.11	0.95				
	17	2	73.14999999999999	142.49999999999997	0.0	0.0	1	1.0881041918766892	0.3542969310943865	220.0	1	1.11	0.95				
	18	3	145.35	332.5	0.0	0.0	1	1.023375937571856	-3.1894751733159847e-27	400.0	1	1.05	0.95				
	19	1	0.0	0.0	0.0	0.0	1	1.067274942755566	-21.94265078567568	220.0	1	1.11	0.95				
	20	1	0.0	0.0	0.0	0.0	1	1.0270982631375922	-1.6671382034153546	400.0	1	1.05	0.95				
	21	1	0.0	0.0	0.0	0.0	1	1.060030202400296	-21.10531992602402	220.0	1	1.11	0.95				
	22	1	0.0	0.0	0.0	0.0	1	1.0827583976518316	-11.834857542851331	220.0	1	1.11	0.95				
	23	1	0.0	0.0	0.0	0.0	1	1.0601259936689897	-16.80061489442315	220.0	2	1.11	0.95				
	24	1	0.0	0.0	0.0	0.0	1	1.0549219454657077	-12.865796563133554	220.0	2	1.11	0.95				
	25	1	0.0	0.0	0.0	0.0	1	1.05644672448899	-11.44360133141826	220.0	2	1.11	0.95				
	26	1	0.0	0.0	0.0	0.0	1	1.0524429316177164	-19.43836396331195	220.0	2	1.11	0.95				
	27	1	0.0	0.0	0.0	0.0	1	1.0635493329169283	-10.095217600009924	220.0	2	1.11	0.95				
	28	1	0.0	0.0	0.0	0.0	1	1.0635336872404737	-10.091195115709047	220.0	2	1.11	0.95				
	29	2	24.681000000000004	56.99999999999999	0.0	0.0	1	1.08543070266476	-15.419144470945099	220.0	2	1.11	0.95				
	30	2	24.681000000000004	56.99999999999999	0.0	0.0	1	1.085325731942951	-15.422587412405054	220.0	2	1.11	0.95				
	31	2	19.931	47.5	0.0	0.0	1	1.0178615303360468	-10.474802141268292	400.0	2	1.05	0.95				
	32	1	0.0	0.0	0.0	0.0	1	1.0178292877791137	-10.515481761491758	400.0	2	1.05	0.95				
	33	1	0.0	0.0	0.0	0.0	1	1.0583603793400675	-10.842882537574077	220.0	2	1.11	0.95				
	34	1	0.0	0.0	0.0	0.0	1	1.043663433510628	-10.688274615178543	400.0	2	1.05	0.95				
	35	1	0.0	0.0	0.0	0.0	1	1.0436925761322096	-10.69608659334537	400.0	2	1.05	0.95				
	36	1	0.0	0.0	0.0	0.0	1	1.0012606496836638	-13.762416804206177	400.0	2	1.05	0.95				
	37	1	0.0	0.0	0.0	0.0	1	1.061954942410112	-17.708080560172743	220.0	2	1.11	0.95				
	38	1	0.0	0.0	0.0	0.0	1	1.0619604791316557	-17.70681065787755	220.0	2	1.11	0.95				
	39	1	0.0	0.0	0.0	0.0	1	1.0141560961286247	-9.59218323045247	400.0	2	1.05	0.95				
	40	1	0.0	0.0	0.0	0.0	1	1.0141435519262385	-9.583919982077983	400.0	2	1.05	0.95				
	41	2	11.390500000000001	28.499999999999996	0.0	0.0	1	1.0601737278375583	-9.43088561743229	220.0	2	1.11	0.95				
	42	2	11.390500000000001	28.499999999999996	0.0	0.0	1	1.060155391670134	-9.446125104807178	220.0	2	1.11	0.95				
	43	2	22.781000000000002	56.99999999999999	0.0	0.0	1	1.0222385511162357	-7.316628792430444	400.0	2	1.05	0.95				
	44	2	22.781000000000002	56.99999999999999	0.0	0.0	1	1.0222635945282934	-7.327571913227745	400.0	2	1.05	0.95				
	45	2	151.848	71.24999999999999	0.0	0.0	1	1.0713156285593801	-16.3159481032259	220.0	2	1.11	0.95				
	46	1	0.0	0.0	0.0	0.0	1	1.0713320618710427	-16.314661555885152	220.0	2	1.11	0.95				
	47	1	0.0	0.0	0.0	0.0	1	1.0586744799597565	-10.914868013022717	220.0	2	1.11	0.95				
	48	1	0.0	0.0	0.0	0.0	1	1.0708503155614306	-15.224721161839549	220.0	2	1.11	0.95				
	49	1	0.0	0.0	0.0	0.0	1	1.0708749192403215	-15.2293936619791	220.0	2	1.11	0.95				
	50	1	0.0	0.0	0.0	0.0	1	1.0302446159019418	-8.947665193062281	400.0	2	1.05	0.95				
	51	1	0.0	0.0	0.0	0.0	1	1.0303358269138339	-8.966149110684444	400.0	2	1.05	0.95				
	52	1	0.0	0.0	0.0	0.0	1	1.0535514747846573	-13.683627496770788	220.0	2	1.11	0.95				
	53	1	0.0	0.0	0.0	0.0	1	1.0552339729600304	-13.568237751020462	220.0	2	1.11	0.95				
	54	1	0.0	0.0	0.0	0.0	1	1.0566473198449173	-11.377953453726533	220.0	2	1.11	0.95				
	55	1	0.0	0.0	0.0	0.0	1	1.0670005220333811	-16.76364469644983	220.0	2	1.11	0.95				
	56	1	0.0	0.0	0.0	0.0	1	1.077779609629947	-4.201517443902237	220.0	3	1.11	0.95				
	57	1	21.831	10.412	0.0	0.0	1	1.0796546599464407	-7.874682656042622	220.0	3	1.11	0.95				
	58	1	20.881	5.5005	0.0	0.0	1	1.0798680181525782	-7.875050312082993	220.0	3	1.11	0.95				
	59	1	0.0	0.0	0.0	0.0	1	1.1051501120108156	-0.12011627535041482	220.0	3	1.11	0.95				
	60	1	0.0	0.0	0.0	0.0	1	1.1014717981680653	-4.697711242566971	220.0	3	1.11	0.95				
	61	1	0.0	0.0	0.0	0.0	1	1.1083196453510518	1.3957842304140662	220.0	3	1.11	0.95				
	62	1	0.0	0.0	0.0	0.0	1	1.1082977245841135	1.3973034105383166	220.0	3	1.11	0.95				
	63	2	35.5015	50.05549999999999	0.0	0.0	1	1.1100000106452699	0.25691965120871285	220.0	3	1.11	0.95				
	64	2	33.601499999999994	52.554	0.0	0.0	1	1.1100000085799904	0.051442187547969774	220.0	3	1.11	0.95				
	65	1	12.720500000000001	1.9189999999999998	0.0	0.0	1	1.1005695875477248	-2.0300215189066537	220.0	3	1.11	0.95				
	66	1	0.0	0.0	0.0	0.0	1	1.0930387390636207	-7.446637992394447	220.0	3	1.11	0.95				
	67	2	57.379999999999995	87.49499999999999	0.0	0.0	1	1.0355601090380806	-5.339433715139549	400.0	3	1.05	0.95				
	68	1	0.0	0.0	0.0	0.0	1	1.0963623596126537	-6.297325953112395	220.0	3	1.11	0.95				
	69	1	0.0	0.0	0.0	0.0	1	1.103987896739723	-2.237277271892026	220.0	3	1.11	0.95				
	70	1	0.0	0.0	0.0	0.0	1	1.0829620331242094	-3.4719267550680155	220.0	3	1.11	0.95				
	71	1	0.0	0.0	0.0	0.0	1	1.0989054667839457	-2.4441969611120204	220.0	3	1.11	0.95				
	72	1	0.0	0.0	0.0	0.0	1	1.0989054667839457	-2.4441969611120204	220.0	3	1.11	0.95				
	73	1	0.0	0.0	0.0	0.0	1	1.0857715194022761	-2.6780632420237	220.0	3	1.11	0.95				
	74	1	0.0	0.0	0.0	0.0	1	1.08233085630297	-3.5750735090926056	220.0	3	1.11	0.95				
	75	1	0.0	0.0	0.0	0.0	1	1.0247615802552539	-2.7317251332869854	400.0	3	1.05	0.95				
	76	1	0.0	0.0	0.0	0.0	1	1.024738641006007	-2.7363540122834453	400.0	3	1.05	0.95				
	77	1	0.0	0.0	0.0	0.0	1	1.0980397546536704	-3.225801506735158	220.0	3	1.11	0.95				
	78	1	0.0	0.0	0.0	0.0	1	1.0933004167051597	-5.645293604306756	220.0	3	1.11	0.95				
	79	1	0.0	0.0	0.0	0.0	1	1.0994595632061968	-1.5378410731674315	220.0	3	1.11	0.95				
	80	1	0.0	0.0	0.0	0.0	1	1.0802621075588559	-7.826250788764794	220.0	3	1.11	0.95				
	81	1	0.0	0.0	0.0	0.0	1	1.080281780610339	-7.825562280107614	220.0	3	1.11	0.95				
	82	1	0.0	0.0	0.0	0.0	1	1.1031416379944898	0.30524535955817805	220.0	3	1.11	0.95				
	83	2	15.190500000000002	21.821499999999997	0.0	0.0	1	1.1057131163291443	-2.2722452034944367	220.0	3	1.11	0.95				
	84	2	15.000499999999997	21.1565	0.0	0.0	1	1.105599661249363	-2.271249424054215	220.0	3	1.11	0.95				
	85	2	9.4905	16.1595	0.0	0.0	1	1.1013257812774653	-2.959788434130825	220.0	3	1.11	0.95				
	86	2	9.4905	15.827	0.0	0.0	1	1.101232401999855	-2.955593107668808	220.0	3	1.11	0.95				
	87	1	10.535499999999999	15.408999999999997	0.0	0.0	1	1.0895121955265539	-3.083252857139864	220.0	3	1.11	0.95				
	88	1	0.0	0.0	0.0	0.0	1	1.0895317322779068	-3.084880113046177	220.0	3	1.11	0.95				
	89	1	0.0	0.0	0.0	0.0	1	1.1014439493357102	-1.487298293087342	220.0	3	1.11	0.95				
	90	1	0.0	0.0	0.0	0.0	1	1.0987573799585226	-3.314701339809335	220.0	3	1.11	0.95				
	91	1	0.0	0.0	0.0	0.0	1	1.10087040942331	-1.4920829600302545	220.0	3	1.11	0.95				
	92	1	0.0	0.0	0.0	0.0	1	1.0216230722494994	-6.1847381251720215	400.0	3	1.05	0.95				
	93	2	9.4905	15.570500000000001	0.0	0.0	1	1.1068697634903235	-0.7508079793959254	220.0	3	1.11	0.95				
	94	1	0.0	0.0	0.0	0.0	1	1.1068411235799038	-0.7513954949952149	220.0	3	1.11	0.95				
	95	2	6.5455	7.7425	0.0	0.0	1	1.1084352557394541	-0.829922736981551	220.0	3	1.11	0.95				
	96	1	0.0	0.0	0.0	0.0	1	1.1084292566803926	-0.8343928280159065	220.0	3	1.11	0.95				
	97	2	8.2555	4.997	0.0	0.0	1	1.093164072386891	-5.161954222961661	220.0	3	1.11	0.95				
	98	1	0.0	0.0	0.0	0.0	1	1.0223919644168935	-7.978837397992885	400.0	3	1.05	0.95				
	99	1	0.0	0.0	0.0	0.0	1	1.022467751047079	-7.968891355165818	400.0	3	1.05	0.95				
	100	1	0.0	0.0	0.0	0.0	1	1.029099207075817	-5.616059746314173	400.0	3	1.05	0.95				
	101	1	0.0	0.0	0.0	0.0	1	1.0290970950257106	-5.6050062805221685	400.0	3	1.05	0.95				
	102	1	0.0	0.0	0.0	0.0	1	1.1033176522335726	-1.3920309304660454	220.0	3	1.11	0.95				
	103	2	17.1855	22.572	0.0	0.0	1	1.1009597169237222	-3.6519407644479975	220.0	3	1.11	0.95				
	104	2	31.995999999999995	43.8045	0.0	0.0	1	1.1009048773707824	-3.643531458064806	220.0	3	1.11	0.95				
	105	2	32.090999999999994	59.8025	0.0	0.0	1	1.0140094713264194	-5.760432960928234	400.0	3	1.05	0.95				
	106	1	0.0	0.0	0.0	0.0	1	1.0141669846701717	-5.774460666440853	400.0	3	1.05	0.95				
	107	1	0.0	0.0	0.0	0.0	1	1.0817732353301204	-3.810402533357678	220.0	3	1.11	0.95				
	108	1	0.0	0.0	0.0	0.0	1	1.0832383009810513	-3.652157690561591	220.0	3	1.11	0.95				
	109	2	0.95	21.241999999999997	0.0	0.0	1	1.1100000105929055	2.1155957604083997	220.0	3	1.11	0.95				
	110	2	0.95	21.070999999999998	0.0	0.0	1	1.1100000105730128	2.1169777012760385	220.0	3	1.11	0.95				
	111	2	25.165499999999994	17.099999999999998	0.0	0.0	1	1.1092943936393456	-13.999186528702396	220.0	4	1.11	0.95				
	112	1	0.0	0.0	0.0	0.0	1	1.1091685837135932	-13.992313884231855	220.0	4	1.11	0.95				
	113	1	0.0	0.0	0.0	0.0	1	1.0612528024554175	-22.74005676472928	220.0	4	1.11	0.95				
	114	1	0.0	0.0	0.0	0.0	1	1.0732627979148097	-21.91162557371431	220.0	4	1.11	0.95				
	115	1	0.0	0.0	0.0	0.0	1	0.9816612460056947	-18.560527897778712	400.0	4	1.05	0.95				
	116	1	0.0	0.0	0.0	0.0	1	0.981645228892108	-18.548676180584796	400.0	4	1.05	0.95				
	117	1	0.0	0.0	0.0	0.0	1	1.0790533990247462	-27.40329819387042	220.0	4	1.11	0.95				
	118	1	0.0	0.0	0.0	0.0	1	1.0421914046550507	-32.95021966374045	220.0	4	1.11	0.95				
	119	1	0.0	0.0	0.0	0.0	1	1.0421914046550507	-32.95021966374045	220.0	4	1.11	0.95				
	120	1	0.0	0.0	0.0	0.0	1	1.0395312295400874	-31.925480694640452	220.0	4	1.11	0.95				
	121	1	0.0	0.0	0.0	0.0	1	1.068511416064128	-23.33214671416812	220.0	4	1.11	0.95				
	122	1	0.0	0.0	0.0	0.0	1	1.068511416064128	-23.33214671416812	220.0	4	1.11	0.95				
	123	2	5.225	6.65	0.0	0.0	1	1.1099730670185823	-19.268151291456572	220.0	4	1.11	0.95				
	124	2	8.350499999999998	16.150000000000002	0.0	0.0	1	1.110000010418477	-19.262977108570198	220.0	4	1.11	0.95				
	125	2	33.915	17.384999999999998	0.0	0.0	1	1.0752382467372976	-29.840824993829234	220.0	4	1.11	0.95				
	126	1	24.016000000000002	15.104999999999999	0.0	0.0	1	1.0751408136234444	-29.83088862248624	220.0	4	1.11	0.95				
	127	2	24.4245	14.534999999999998	0.0	0.0	1	1.0251151922724777	-23.173912164981598	400.0	4	1.05	0.95				
	128	1	0.0	0.0	0.0	0.0	1	1.0250734104819867	-23.183942842829968	400.0	4	1.05	0.95				
	129	1	0.0	0.0	0.0	0.0	1	1.0489585375612394	-28.90499661652037	220.0	4	1.11	0.95				
	130	1	0.0	0.0	0.0	0.0	1	1.032158540653889	-29.179843658761257	220.0	4	1.11	0.95				
	131	2	65.23649999999999	66.49999999999999	0.0	0.0	1	1.0945852780550998	-19.301132529599695	220.0	4	1.11	0.95				
	132	2	31.35	42.75	0.0	0.0	1	1.0947166510588515	-19.31936002511057	220.0	4	1.11	0.95				
	133	1	0.0	0.0	0.0	0.0	1	0.992868253560576	-19.03292827452919	400.0	4	1.05	0.95				
	134	1	0.0	0.0	0.0	0.0	1	0.9928729828894063	-19.033685410529227	400.0	4	1.05	0.95				
	135	1	0.0	0.0	0.0	0.0	1	1.0429350439899607	-32.89802473746987	220.0	4	1.11	0.95				
	136	1	0.0	0.0	0.0	0.0	1	1.0429350439899607	-32.89802473746987	220.0	4	1.11	0.95				
	137	1	0.0	0.0	0.0	0.0	1	0.9954831262431829	-14.89536975922997	400.0	4	1.05	0.95				
	138	1	0.0	0.0	0.0	0.0	1	0.9954831262431829	-14.89536975922997	400.0	4	1.05	0.95				
	139	2	31.540000000000003	21.47	0.0	0.0	1	1.110000010573959	-19.658578420693885	220.0	4	1.11	0.95				
	140	2	27.768500000000003	18.62	0.0	0.0	1	1.1100000109505428	-19.6560563946657	220.0	4	1.11	0.95				
	141	1	0.0	0.0	0.0	0.0	1	1.0546865266583014	-31.759618315774375	220.0	4	1.11	0.95				
	142	1	0.0	0.0	0.0	0.0	1	1.03953322446883	-33.15230820802304	220.0	4	1.11	0.95				
	143	1	0.0	0.0	0.0	0.0	1	1.07636583202554	-28.336065991628324	220.0	4	1.11	0.95				
	144	1	0.0	0.0	0.0	0.0	1	1.0762899643743595	-28.336073422999686	220.0	4	1.11	0.95				
	145	1	0.0	0.0	0.0	0.0	1	0.9768254496328956	-27.51859737492935	400.0	4	1.05	0.95				
	146	1	0.0	0.0	0.0	0.0	1	0.9768254496328956	-27.51859737492935	400.0	4	1.05	0.95				
	147	1	0.0	0.0	0.0	0.0	1	1.044705903544464	-26.514555094921345	220.0	4	1.11	0.95				
	148	1	0.0	0.0	0.0	0.0	1	1.0447517323956022	-26.509401764883744	220.0	4	1.11	0.95				
	149	1	0.0	0.0	0.0	0.0	1	1.073207826609733	-28.977297525180735	220.0	4	1.11	0.95				
	150	1	0.0	0.0	0.0	0.0	1	1.0639808288499846	-22.064364842679243	220.0	4	1.11	0.95				
	151	1	0.0	0.0	0.0	0.0	1	1.064008380070377	-22.07111076865384	220.0	4	1.11	0.95				
	152	1	0.0	0.0	0.0	0.0	1	1.0592779052546575	-19.226229849607105	220.0	4	1.11	0.95				
	153	1	0.0	0.0	0.0	0.0	1	1.0592779052546575	-19.226229849607105	220.0	4	1.11	0.95				
	154	1	0.0	0.0	0.0	0.0	1	1.0290329331864894	-28.167756402142317	220.0	4	1.11	0.95				
	155	1	0.0	0.0	0.0	0.0	1	1.0641809359389824	-25.347458575046	220.0	5	1.11	0.95				
	156	1	0.0	0.0	0.0	0.0	1	1.1100000110551071	-26.632946675877726	220.0	5	1.11	0.95				
	157	1	0.0	0.0	0.0	0.0	1	1.0227093176720672	-24.72179441905366	400.0	5	1.05	0.95				
	158	1	0.0	0.0	0.0	0.0	1	1.0226955252915926	-24.7177412086776	400.0	5	1.05	0.95				
	159	1	0.0	0.0	0.0	0.0	1	1.0280723530407763	-22.930122930444444	400.0	5	1.05	0.95				
	160	1	0.0	0.0	0.0	0.0	1	1.028129475444839	-22.934656290078564	400.0	5	1.05	0.95				
	161	1	0.0	0.0	0.0	0.0	1	1.0602709969637247	-28.05417955876504	220.0	5	1.11	0.95				
	162	1	0.0	0.0	0.0	0.0	1	1.0602772638263334	-28.054837015590465	220.0	5	1.11	0.95				
	163	1	0.0	0.0	0.0	0.0	1	1.0940039473190668	-23.93043735426264	220.0	5	1.11	0.95				
	164	1	0.0	0.0	0.0	0.0	1	1.0939990572480816	-23.936326261796623	220.0	5	1.11	0.95				
	165	1	0.0	0.0	0.0	0.0	1	1.0019947195278343	-22.11023624373544	400.0	5	1.05	0.95				
	166	1	0.0	0.0	0.0	0.0	1	1.0759337835340486	-24.658181287825794	220.0	5	1.11	0.95				
	167	1	0.0	0.0	0.0	0.0	1	1.0759678192589748	-24.654639093102446	220.0	5	1.11	0.95				
	168	1	0.0	0.0	0.0	0.0	1	1.0315348093726369	-24.59202166848563	400.0	5	1.05	0.95				
	169	1	0.0	0.0	0.0	0.0	1	1.0315263900245502	-24.59857489883451	400.0	5	1.05	0.95				
	170	1	0.0	0.0	0.0	0.0	1	1.0611523603942927	-25.664058579855165	220.0	5	1.11	0.95				
	171	1	0.0	0.0	0.0	0.0	1	1.061179561005894	-25.66089560176489	220.0	5	1.11	0.95				
	172	1	0.0	0.0	0.0	0.0	1	1.0705347116749513	-25.652234795254635	220.0	5	1.11	0.95				
	173	1	0.0	0.0	0.0	0.0	1	1.0705059229806098	-25.653051752027032	220.0	5	1.11	0.95				
	174	1	0.0	0.0	0.0	0.0	1	1.0679901266549698	-24.768952433997626	220.0	5	1.11	0.95				
	175	1	0.0	0.0	0.0	0.0	1	1.067974333169858	-24.773456082597416	220.0	5	1.11	0.95				
	176	2	0.0	38.0	0.0	0.0	1	1.0291656574853436	-21.35772372790578	400.0	5	1.05	0.95				
	177	2	0.0	38.0	0.0	0.0	1	1.0293101879171314	-21.356925863937473	400.0	5	1.05	0.95				
	178	1	0.0	0.0	0.0	0.0	1	1.0812256078914728	-28.735091806806004	220.0	5	1.11	0.95				
	179	1	0.0	0.0	0.0	0.0	1	1.081255631869605	-28.7305628108944	220.0	5	1.11	0.95				
	180	2	322.8575	47.12	0.0	0.0	2	1.0075491147246578	-8.430623878362729	400.0	6	1.05	0.95				
	181	2	0.0	0.0	0.0	0.0	3	1.106837701643191	-9.884404650017016	220.0	6	1.11	0.95				
	182	2	0.0	0.0	0.0	0.0	5	0.9946437217202653	-18.738629489142564	400.0	6	1.05	0.95				
	183	1	142.49999999999997	0.0	0.0	0.0	3	1.050000010487983	-11.579024702549116	400.0	6	1.05	0.95				
	184	2	301.4729999999999	47.785	0.0	0.0	2	1.096021365508498	-5.57451369789075	220.0	6	1.11	0.95				
	185	2	344.3084999999999	34.865	0.0	0.0	2	1.0066770698714491	-9.174772008818554	400.0	6	1.05	0.95				
	186	2	31.663499999999996	0.95	0.0	0.0	5	1.0749390206193135	-29.96069832457981	220.0	6	1.11	0.95				
	187	1	6.763999999999999	1.4249999999999998	0.0	0.0	1	1.0695784560001855	-24.06678000126446	110.0	1	1.12	0.95				
	188	1	7.248499999999999	0.95	0.0	0.0	1	1.049710915520142	-29.838192511412956	110.0	1	1.12	0.95				
	189	1	9.2815	8.264999999999999	0.0	0.0	1	1.0021753488708076	-27.9367480668883	110.0	1	1.12	0.95				
	190	1	5.814	1.4249999999999998	0.0	0.0	1	1.104179307546724	-5.032096544939172	110.0	1	1.12	0.95				
	191	1	5.814	1.52	0.0	0.0	1	1.0852572395915312	-6.140493742901514	110.0	1	1.12	0.95				
	192	2	29.031999999999996	11.399999999999999	0.0	0.0	1	1.120000010778884	-20.425867450105738	110.0	1	1.12	0.95				
	193	1	14.515999999999998	2.8499999999999996	0.0	0.0	1	1.1188780577974	-20.340229826264178	110.0	1	1.12	0.95				
	194	1	0.0	0.0	0.0	0.0	1	1.1187679920788394	-20.58991328357042	110.0	1	1.12	0.95				
	195	1	7.733	1.9	0.0	0.0	1	1.0850589528448862	-25.395320367260652	110.0	1	1.12	0.95				
	196	2	6.573999999999999	1.4249999999999998	0.0	0.0	1	1.0232660421851132	-30.251052116514348	110.0	1	1.12	0.95				
	197	1	6.573999999999999	1.4249999999999998	0.0	0.0	1	1.0742193834935247	-14.433893905044638	110.0	1	1.12	0.95				
	198	2	11.704	1.6150000000000002	0.0	0.0	1	1.0775546988227138	-25.71060765056553	110.0	1	1.12	0.95				
	199	1	1.3585	0.475	0.0	0.0	1	1.10856123972847	-7.516392283802114	110.0	1	1.12	0.95				
	200	1	1.026	0.475	0.0	0.0	1	1.100274897915867	-24.371252140306613	110.0	1	1.12	0.95				
...
];

%% generator data
%    bus    Pg    Qg    Qmax    Qmin    Vg    mBase    status    Pmax    Pmin    Pc1    Pc2    Qc1min    Qc1max    Qc2min    Qc2max    ramp_agc    ramp_10    ramp_30    ramp_q    apf
mpc.gen = [
	10	400.00000398495024	115.88387208322924	120.0	0.0	1.0	168.0	1	400.0	0.0	0.0	0.0	0.0	0.0	0.0	0.0	0.0	0.0	0.0	0.0	0.0				
	16	720.0000071948298	189.72443214646006	440.00000000000006	-40.0	1.0	823.0	1	720.0	0.0	0.0	0.0	0.0	0.0	0.0	0.0	0.0	0.0	0.0	0.0	0.0				
	17	1080.000010786917	217.84183366848694	660.0	-60.0	1.0	1234.0	1	1080.0	0.0	0.0	0.0	0.0	0.0	0.0	0.0	0.0	0.0	0.0	0.0	0.0				
	18	2520.000025039638	-36.63893618299134	1540.0	-140.0	1.0	2879.0	1	2520.0	0.0	0.0	0.0	0.0	0.0	0.0	0.0	0.0	0.0	0.0	0.0	0.0				
	29	-9.723947549170468e-7	239.9995497277099	240.0	0.0	1.0	511.0	1	400.0	0.0	0.0	0.0	0.0	0.0	0.0	0.0	0.0	0.0	0.0	0.0	0.0				
	30	-9.813059968884948e-7	1.5358295114420992	240.0	0.0	1.0	511.0	1	800.0	0.0	0.0	0.0	0.0	0.0	0.0	0.0	0.0	0.0	0.0	0.0	0.0				
	31	1000.0000099935376	-7.540710148588404e-7	350.0	0.0	1.0	420.0	1	1000.0	0.0	0.0	0.0	0.0	0.0	0.0	0.0	0.0	0.0	0.0	0.0	0.0				
	41	200.00000198764272	-5.966079137634484e-7	120.0	0.0	1.0	241.0	1	200.0	0.0	0.0	0.0	0.0	0.0	0.0	0.0	0.0	0.0	0.0	0.0	0.0				
	42	-9.609392781113236e-7	-5.947001964230147e-7	120.0	0.0	1.0	241.0	1	409.99999999999994	0.0	0.0	0.0	0.0	0.0	0.0	0.0	0.0	0.0	0.0	0.0	0.0				
	43	410.0000040929681	-8.725656876932424e-7	240.0	0.0	1.0	482.0	1	409.99999999999994	0.0	0.0	0.0	0.0	0.0	0.0	0.0	0.0	0.0	0.0	0.0	0.0				
	44	410.0000040914776	-8.728279083472703e-7	240.0	0.0	1.0	482.0	1	409.99999999999994	0.0	0.0	0.0	0.0	0.0	0.0	0.0	0.0	0.0	0.0	0.0	0.0				
	45	42.200000997019956	20.999999215017944	21.0	0.0	1.0	49.0	1	42.2	0.0	0.0	0.0	0.0	0.0	0.0	0.0	0.0	0.0	0.0	0.0	0.0				
	63	650.0000064928099	96.39574779621341	302.0	0.0	1.0	473.0	1	650.0	0.0	0.0	0.0	0.0	0.0	0.0	0.0	0.0	0.0	0.0	0.0	0.0				
	64	450.0000044909415	88.72923349117252	311.0	2.0	1.0	475.0	1	450.0	0.0	0.0	0.0	0.0	0.0	0.0	0.0	0.0	0.0	0.0	0.0	0.0				
	67	750.0000074916331	243.57512383003498	449.0	0.0	1.0	864.0	1	750.0	0.0	0.0	0.0	0.0	0.0	0.0	0.0	0.0	0.0	0.0	0.0	0.0				
	83	225.00000224413975	161.16135028848473	190.0	-89.0	1.0	239.0	1	225.0	0.0	0.0	0.0	0.0	0.0	0.0	0.0	0.0	0.0	0.0	0.0	0.0				
	84	225.00000224074284	-88.83269631491927	190.0	-89.0	1.0	251.0	1	225.0	0.0	0.0	0.0	0.0	0.0	0.0	0.0	0.0	0.0	0.0	0.0	0.0				
	85	120.0000011862504	124.99948000402009	125.0	-50.0	1.0	133.0	1	120.0	0.0	0.0	0.0	0.0	0.0	0.0	0.0	0.0	0.0	0.0	0.0	0.0				
	86	120.00000115749599	-15.058298514885141	125.0	-50.0	1.0	133.0	1	120.0	0.0	0.0	0.0	0.0	0.0	0.0	0.0	0.0	0.0	0.0	0.0	0.0				
	93	120.00000118699596	62.24593211708709	90.0	5.0	1.0	123.0	1	120.0	0.0	0.0	0.0	0.0	0.0	0.0	0.0	0.0	0.0	0.0	0.0	0.0				
	95	110.00000108062345	27.000012429658092	68.0	27.0	1.0	105.0	1	110.00000000000001	0.0	0.0	0.0	0.0	0.0	0.0	0.0	0.0	0.0	0.0	0.0	0.0				
	97	87.60000099659624	31.27024243343653	68.0	27.0	1.0	105.0	1	87.6	0.0	0.0	0.0	0.0	0.0	0.0	0.0	0.0	0.0	0.0	0.0	0.0				
	103	-9.77670538148923e-7	176.99731547300087	177.0	-82.0	1.0	239.0	1	400.0	0.0	0.0	0.0	0.0	0.0	0.0	0.0	0.0	0.0	0.0	0.0	0.0				
	104	225.00000223306665	-16.501246467887494	379.0	-177.0	1.0	490.0	1	225.0	0.0	0.0	0.0	0.0	0.0	0.0	0.0	0.0	0.0	0.0	0.0	0.0				
	105	430.0000042858871	-164.9999961222443	353.0	-165.0	1.0	502.0	1	430.0	0.0	0.0	0.0	0.0	0.0	0.0	0.0	0.0	0.0	0.0	0.0	0.0				
	109	250.00000249664086	18.9610779593332	65.0	0.0	1.0	277.0	1	250.0	0.0	0.0	0.0	0.0	0.0	0.0	0.0	0.0	0.0	0.0	0.0	0.0				
	110	250.0000024966408	19.187446509515404	65.0	0.0	1.0	280.0	1	250.0	0.0	0.0	0.0	0.0	0.0	0.0	0.0	0.0	0.0	0.0	0.0	0.0				
	111	360.0000035249953	160.66985673783773	270.0	0.0	1.0	401.0	1	360.0	0.0	0.0	0.0	0.0	0.0	0.0	0.0	0.0	0.0	0.0	0.0	0.0				
	123	-9.603057700067793e-7	39.999980362615496	40.0	0.0	1.0	98.0	1	110.00000000000001	0.0	0.0	0.0	0.0	0.0	0.0	0.0	0.0	0.0	0.0	0.0	0.0				
	124	125.00000124317772	89.99997944441405	90.0	0.0	1.0	132.0	1	125.0	0.0	0.0	0.0	0.0	0.0	0.0	0.0	0.0	0.0	0.0	0.0	0.0				
	125	128.27275820941026	193.41858932084935	360.0	0.0	1.0	654.0	1	860.0	0.0	0.0	0.0	0.0	0.0	0.0	0.0	0.0	0.0	0.0	0.0	0.0				
	127	690.0000068936184	25.074835804719342	360.0	0.0	1.0	540.0	1	690.0	0.0	0.0	0.0	0.0	0.0	0.0	0.0	0.0	0.0	0.0	0.0	0.0				
	131	721.0659704506791	0.00012122311700428246	360.0	0.0	1.0	696.0	1	1060.0	0.0	0.0	0.0	0.0	0.0	0.0	0.0	0.0	0.0	0.0	0.0	0.0				
	132	-9.61618076071801e-7	268.6015652350738	480.0	0.0	1.0	732.0	1	600.0	0.0	0.0	0.0	0.0	0.0	0.0	0.0	0.0	0.0	0.0	0.0	0.0				
	139	12.671379261769117	119.88884353239943	360.0	0.0	1.0	714.0	1	600.0	0.0	0.0	0.0	0.0	0.0	0.0	0.0	0.0	0.0	0.0	0.0	0.0				
	140	200.0000019915478	107.97162812821439	120.0	0.0	1.0	240.0	1	200.0	0.0	0.0	0.0	0.0	0.0	0.0	0.0	0.0	0.0	0.0	0.0	0.0				
	176	600.0000059970905	-119.9998729444633	220.00000000000003	-120.0	1.0	430.0	1	600.0	0.0	0.0	0.0	0.0	0.0	0.0	0.0	0.0	0.0	0.0	0.0	0.0				
	177	200.00000199709058	159.2123208718099	220.00000000000003	-120.0	1.0	430.0	1	200.0	0.0	0.0	0.0	0.0	0.0	0.0	0.0	0.0	0.0	0.0	0.0	0.0				
	180	0.0	21.67206135641098	99999.0	-99999.0	1.0	7485.0	1	0.0	0.0	0.0	0.0	0.0	0.0	0.0	0.0	0.0	0.0	0.0	0.0	0.0				
	181	175.00000174693196	25.203016504179626	99999.0	-99999.0	1.0	210.0	1	175.0	0.0	0.0	0.0	0.0	0.0	0.0	0.0	0.0	0.0	0.0	0.0	0.0				
	182	307.59000307300056	67.103309926275	99999.0	-99999.0	1.0	13465.0	1	307.59	0.0	0.0	0.0	0.0	0.0	0.0	0.0	0.0	0.0	0.0	0.0	0.0				
	184	0.0	66.76522052533566	99999.0	-99999.0	1.0	8353.0	1	0.0	0.0	0.0	0.0	0.0	0.0	0.0	0.0	0.0	0.0	0.0	0.0	0.0				
	185	0.0	15.311177358997044	99999.0	-99999.0	1.0	14254.0	1	0.0	0.0	0.0	0.0	0.0	0.0	0.0	0.0	0.0	0.0	0.0	0.0	0.0				
	186	0.0	-4.541803761917965	99999.0	-99999.0	1.0	7401.0	1	0.0	0.0	0.0	0.0	0.0	0.0	0.0	0.0	0.0	0.0	0.0	0.0	0.0				
	192	95.00000099697995	23.73937969280007	50.0	0.0	1.0	114.0	1	95.0	0.0	0.0	0.0	0.0	0.0	0.0	0.0	0.0	0.0	0.0	0.0	0.0				
	196	0.900000997335928	1.0000009324985033	1.0	0.0	1.0	1.0	1	0.9000000000000001	0.0	0.0	0.0	0.0	0.0	0.0	0.0	0.0	0.0	0.0	0.0	0.0				
	198	0.8000009973080492	1.000000783748703	1.0	0.0	1.0	1.0	1	0.8	0.0	0.0	0.0	0.0	0.0	0.0	0.0	0.0	0.0	0.0	0.0	0.0				
	205	15.000000996942187	3.9674043193329527	10.0	0.0	1.0	18.0	1	15.0	0.0	0.0	0.0	0.0	0.0	0.0	0.0	0.0	0.0	0.0	0.0	0.0				
	213	11.000000997497576	-3.4353693817177016e-7	8.0	0.0	1.0	13.0	1	11.0	0.0	0.0	0.0	0.0	0.0	0.0	0.0	0.0	0.0	0.0	0.0	0.0				
	264	2.5000009973449027	2.0000004782127547	2.0	0.0	1.0	3.0	1	2.5	0.0	0.0	0.0	0.0	0.0	0.0	0.0	0.0	0.0	0.0	0.0	0.0				
	269	6.000000997038678	5.0000003002341264	5.0	0.0	1.0	7.0	1	6.0	0.0	0.0	0.0	0.0	0.0	0.0	0.0	0.0	0.0	0.0	0.0	0.0				
	277	70.000000996911	36.38183268550406	42.0	0.0	1.0	84.0	1	70.0	0.0	0.0	0.0	0.0	0.0	0.0	0.0	0.0	0.0	0.0	0.0	0.0				
	278	60.000000996939875	9.289962862257141	40.0	0.0	1.0	72.0	1	60.0	0.0	0.0	0.0	0.0	0.0	0.0	0.0	0.0	0.0	0.0	0.0	0.0				
	279	60.00000099692453	16.447347034611447	40.0	0.0	1.0	72.0	1	60.0	0.0	0.0	0.0	0.0	0.0	0.0	0.0	0.0	0.0	0.0	0.0	0.0				
	281	120.00000119688612	28.57566102371108	90.0	0.0	1.0	144.0	1	120.0	0.0	0.0	0.0	0.0	0.0	0.0	0.0	0.0	0.0	0.0	0.0	0.0				
	282	40.000000996881816	14.973420179755582	40.0	0.0	1.0	48.0	1	40.0	0.0	0.0	0.0	0.0	0.0	0.0	0.0	0.0	0.0	0.0	0.0	0.0				
	289	2.5000009968968016	2.9999978831995504	3.0	0.0	1.0	3.0	1	2.5	0.0	0.0	0.0	0.0	0.0	0.0	0.0	0.0	0.0	0.0	0.0	0.0				
	294	2.0000009971229304	1.000000289189094	1.0	0.0	1.0	2.0	1	2.0	0.0	0.0	0.0	0.0	0.0	0.0	0.0	0.0	0.0	0.0	0.0	0.0				
	314	1.500000997302809	0.9999982725781262	1.0	0.0	1.0	2.0	1	1.5	0.0	0.0	0.0	0.0	0.0	0.0	0.0	0.0	0.0	0.0	0.0	0.0				
	328	44.00000099708382	16.272925153321534	21.0	0.0	1.0	53.0	1	44.0	0.0	0.0	0.0	0.0	0.0	0.0	0.0	0.0	0.0	0.0	0.0	0.0				
	329	44.000000997251334	21.000000338628354	21.0	0.0	1.0	53.0	1	44.0	0.0	0.0	0.0	0.0	0.0	0.0	0.0	0.0	0.0	0.0	0.0	0.0				
	330	44.00000099701549	-2.9352747081469317e-7	21.0	0.0	1.0	53.0	1	44.0	0.0	0.0	0.0	0.0	0.0	0.0	0.0	0.0	0.0	0.0	0.0	0.0				
	331	43.0000009972692	18.69322098571756	21.0	0.0	1.0	52.0	1	43.0	0.0	0.0	0.0	0.0	0.0	0.0	0.0	0.0	0.0	0.0	0.0	0.0				
	334	1.5000009972725368	0.9999997776341049	1.0	0.0	1.0	2.0	1	1.5	0.0	0.0	0.0	0.0	0.0	0.0	0.0	0.0	0.0	0.0	0.0	0.0				
	346	200.00000196091003	18.856524596280966	120.0	0.0	1.0	180.0	1	200.0	0.0	0.0	0.0	0.0	0.0	0.0	0.0	0.0	0.0	0.0	0.0	0.0				
	347	10.000000997105808	3.4405399796345972	15.0	0.0	1.0	12.0	1	10.0	0.0	0.0	0.0	0.0	0.0	0.0	0.0	0.0	0.0	0.0	0.0	0.0				
	359	1.500000997246641	1.0000003287824866	1.0	0.0	1.0	2.0	1	1.5	0.0	0.0	0.0	0.0	0.0	0.0	0.0	0.0	0.0	0.0	0.0	0.0				
	365	5.100000997212238	3.000000718907491	3.0	0.0	1.0	6.0	1	5.1	0.0	0.0	0.0	0.0	0.0	0.0	0.0	0.0	0.0	0.0	0.0	0.0				
	382	8.000000997484515	5.000000705803272	5.0	0.0	1.0	10.0	1	8.0	0.0	0.0	0.0	0.0	0.0	0.0	0.0	0.0	0.0	0.0	0.0	0.0				
	383	8.0000009973935	5.000000842417042	5.0	0.0	1.0	10.0	1	8.0	0.0	0.0	0.0	0.0	0.0	0.0	0.0	0.0	0.0	0.0	0.0	0.0				
	385	6.000000997370656	4.000000830415596	4.0	0.0	1.0	7.0	1	6.0	0.0	0.0	0.0	0.0	0.0	0.0	0.0	0.0	0.0	0.0	0.0	0.0				
	390	4.500000996811282	3.0000004469759696	3.0	0.0	1.0	5.0	1	4.5	0.0	0.0	0.0	0.0	0.0	0.0	0.0	0.0	0.0	0.0	0.0	0.0				
	395	10.000000997166747	1.64374799501932	8.0	0.0	1.0	12.0	1	10.0	0.0	0.0	0.0	0.0	0.0	0.0	0.0	0.0	0.0	0.0	0.0	0.0				
	404	3.0000009968416683	3.0000005989071306	3.0	0.0	1.0	4.0	1	3.0	0.0	0.0	0.0	0.0	0.0	0.0	0.0	0.0	0.0	0.0	0.0	0.0				
	426	3.2000009974296972	0.8002469655714767	2.0	0.0	1.0	4.0	1	3.2	0.0	0.0	0.0	0.0	0.0	0.0	0.0	0.0	0.0	0.0	0.0	0.0				
	444	1.0000009968477355	-9.541800196953094e-7	1.0	0.0	1.0	1.0	1	1.0	0.0	0.0	0.0	0.0	0.0	0.0	0.0	0.0	0.0	0.0	0.0	0.0				
	451	4.500000997249331	3.0000007732842087	3.0	0.0	1.0	5.0	1	4.5	0.0	0.0	0.0	0.0	0.0	0.0	0.0	0.0	0.0	0.0	0.0	0.0				
	482	1.0000009968259422	1.0000006181410372	1.0	0.0	1.0	1.0	1	1.0	0.0	0.0	0.0	0.0	0.0	0.0	0.0	0.0	0.0	0.0	0.0	0.0				
	492	2.0000009972087227	1.000000644359636	1.0	0.0	1.0	2.0	1	2.0	0.0	0.0	0.0	0.0	0.0	0.0	0.0	0.0	0.0	0.0	0.0	0.0				
	493	234.00000233715107	100.94229943401089	130.0	0.0	1.0	281.0	1	234.0	0.0	0.0	0.0	0.0	0.0	0.0	0.0	0.0	0.0	0.0	0.0	0.0				
	494	234.00000233734963	129.99998347541572	130.0	0.0	1.0	281.0	1	234.0	0.0	0.0	0.0	0.0	0.0	0.0	0.0	0.0	0.0	0.0	0.0	0.0				
	514	115.00000114732852	90.00000021408704	90.0	0.0	1.0	138.0	1	114.99999999999999	0.0	0.0	0.0	0.0	0.0	0.0	0.0	0.0	0.0	0.0	0.0	0.0				
	515	115.00000114756388	75.99786349215286	90.0	0.0	1.0	138.0	1	114.99999999999999	0.0	0.0	0.0	0.0	0.0	0.0	0.0	0.0	0.0	0.0	0.0	0.0				
	525	6.000000996955259	4.000000456554392	4.0	0.0	1.0	7.0	1	6.0	0.0	0.0	0.0	0.0	0.0	0.0	0.0	0.0	0.0	0.0	0.0	0.0				
	536	6.000000997322432	6.000000814801211	6.0	0.0	1.0	7.0	1	6.0	0.0	0.0	0.0	0.0	0.0	0.0	0.0	0.0	0.0	0.0	0.0	0.0				
	537	3.500000997352369	3.0000005999243	3.0	0.0	1.0	4.0	1	3.5000000000000004	0.0	0.0	0.0	0.0	0.0	0.0	0.0	0.0	0.0	0.0	0.0	0.0				
	556	2.700000997121162	1.0000004483086182	1.0	0.0	1.0	3.0	1	2.7	0.0	0.0	0.0	0.0	0.0	0.0	0.0	0.0	0.0	0.0	0.0	0.0				
	580	1.6000009970229045	1.0000003560395023	1.0	0.0	1.0	2.0	1	1.6	0.0	0.0	0.0	0.0	0.0	0.0	0.0	0.0	0.0	0.0	0.0	0.0				
	584	2.7000009971228773	1.9999993082617087	2.0	0.0	1.0	3.0	1	2.7	0.0	0.0	0.0	0.0	0.0	0.0	0.0	0.0	0.0	0.0	0.0	0.0				
	585	4.0000009971207815	1.999999360606038	2.0	0.0	1.0	5.0	1	4.0	0.0	0.0	0.0	0.0	0.0	0.0	0.0	0.0	0.0	0.0	0.0	0.0				
	607	0.8000009969705473	0.0	0.0	0.0	1.0	1.0	1	0.8	0.0	0.0	0.0	0.0	0.0	0.0	0.0	0.0	0.0	0.0	0.0	0.0				
	612	200.00000185688035	66.88637606508297	120.0	0.0	1.0	256.0	1	200.0	0.0	0.0	0.0	0.0	0.0	0.0	0.0	0.0	0.0	0.0	0.0	0.0				
	613	200.00000197583975	119.99978379164695	120.0	0.0	1.0	256.0	1	200.0	0.0	0.0	0.0	0.0	0.0	0.0	0.0	0.0	0.0	0.0	0.0	0.0				
	615	1.400000996956284	1.0000004308688364	1.0	0.0	1.0	2.0	1	1.4	0.0	0.0	0.0	0.0	0.0	0.0	0.0	0.0	0.0	0.0	0.0	0.0				
	623	7.600000997118171	5.000000478567753	5.0	0.0	1.0	9.0	1	7.6	0.0	0.0	0.0	0.0	0.0	0.0	0.0	0.0	0.0	0.0	0.0	0.0				
	639	9.600000997030525	4.000000416145776	4.0	0.0	1.0	12.0	1	9.6	0.0	0.0	0.0	0.0	0.0	0.0	0.0	0.0	0.0	0.0	0.0	0.0				
	651	4.700000997064142	2.0000004653898387	2.0	0.0	1.0	6.0	1	4.7	0.0	0.0	0.0	0.0	0.0	0.0	0.0	0.0	0.0	0.0	0.0	0.0				
	654	1.400000996955847	1.2795903463842295e-7	1.0	0.0	1.0	2.0	1	1.4	0.0	0.0	0.0	0.0	0.0	0.0	0.0	0.0	0.0	0.0	0.0	0.0				
	664	6.200000996952318	6.000000234080433	6.0	0.0	1.0	7.0	1	6.2	0.0	0.0	0.0	0.0	0.0	0.0	0.0	0.0	0.0	0.0	0.0	0.0				
	670	2.7000009969764647	-8.259352092347997e-7	2.0	0.0	1.0	3.0	1	2.7	0.0	0.0	0.0	0.0	0.0	0.0	0.0	0.0	0.0	0.0	0.0	0.0				
	674	1.000000997126608	0.0	0.0	0.0	1.0	1.0	1	1.0	0.0	0.0	0.0	0.0	0.0	0.0	0.0	0.0	0.0	0.0	0.0	0.0				
	688	-8.839757608809639e-7	30.787067986914487	120.0	0.0	1.0	242.0	1	202.0	0.0	0.0	0.0	0.0	0.0	0.0	0.0	0.0	0.0	0.0	0.0	0.0				
	692	1.4000009970783238	0.9999965692407063	1.0	0.0	1.0	2.0	1	1.4	0.0	0.0	0.0	0.0	0.0	0.0	0.0	0.0	0.0	0.0	0.0	0.0				
	699	3.8000009970089073	-7.491770627801336e-7	2.0	0.0	1.0	5.0	1	3.8	0.0	0.0	0.0	0.0	0.0	0.0	0.0	0.0	0.0	0.0	0.0	0.0				
	712	1.2000009971185155	1.0000005615383343	1.0	0.0	1.0	1.0	1	1.2	0.0	0.0	0.0	0.0	0.0	0.0	0.0	0.0	0.0	0.0	0.0	0.0				
	730	6.900000996923711	-8.439345887266986e-7	3.0	0.0	1.0	8.0	1	6.9	0.0	0.0	0.0	0.0	0.0	0.0	0.0	0.0	0.0	0.0	0.0	0.0				
	732	1.1000009970778613	-4.859462214414947e-7	1.0	0.0	1.0	1.0	1	1.1	0.0	0.0	0.0	0.0	0.0	0.0	0.0	0.0	0.0	0.0	0.0	0.0				
	735	4.100000997047025	2.0000004735795933	2.0	0.0	1.0	5.0	1	4.1	0.0	0.0	0.0	0.0	0.0	0.0	0.0	0.0	0.0	0.0	0.0	0.0				
	740	4.000000996849719	-8.702863153441634e-7	1.0	0.0	1.0	5.0	1	4.0	0.0	0.0	0.0	0.0	0.0	0.0	0.0	0.0	0.0	0.0	0.0	0.0				
	744	134.00000133678233	-7.726074125363656e-7	60.0	0.0	1.0	161.0	1	134.0	0.0	0.0	0.0	0.0	0.0	0.0	0.0	0.0	0.0	0.0	0.0	0.0				
	754	80.00000098876355	4.498479923398447	30.0	0.0	1.0	54.0	1	80.0	0.0	0.0	0.0	0.0	0.0	0.0	0.0	0.0	0.0	0.0	0.0	0.0				
	755	-8.961904083500613e-7	18.90125262497114	80.0	0.0	1.0	110.0	1	250.0	0.0	0.0	0.0	0.0	0.0	0.0	0.0	0.0	0.0	0.0	0.0	0.0				
	760	3.100000997088236	1.9999990937603758	2.0	0.0	1.0	4.0	1	3.1	0.0	0.0	0.0	0.0	0.0	0.0	0.0	0.0	0.0	0.0	0.0	0.0				
	766	2.100000997108479	0.9999987170888578	1.0	0.0	1.0	3.0	1	2.1	0.0	0.0	0.0	0.0	0.0	0.0	0.0	0.0	0.0	0.0	0.0	0.0				
	784	0.7000009970501037	0.0	0.0	0.0	1.0	1.0	1	0.7	0.0	0.0	0.0	0.0	0.0	0.0	0.0	0.0	0.0	0.0	0.0	0.0				
	790	49.80000099686542	35.0	35.0	35.0	1.0	60.0	1	49.8	0.0	0.0	0.0	0.0	0.0	0.0	0.0	0.0	0.0	0.0	0.0	0.0				
	795	1.890000996741257	1.0	1.0	1.0	1.0	2.0	1	1.8900000000000001	0.0	0.0	0.0	0.0	0.0	0.0	0.0	0.0	0.0	0.0	0.0	0.0				
	798	2.9900009967705463	3.0	3.0	3.0	1.0	4.0	1	2.99	0.0	0.0	0.0	0.0	0.0	0.0	0.0	0.0	0.0	0.0	0.0	0.0				
	814	44.92000099674588	15.292055743802049	42.0	0.0	1.0	54.0	1	44.92	0.0	0.0	0.0	0.0	0.0	0.0	0.0	0.0	0.0	0.0	0.0	0.0				
	834	55.000000979376495	78.83782852012658	83.0	0.0	1.0	110.0	1	55.00000000000001	0.0	0.0	0.0	0.0	0.0	0.0	0.0	0.0	0.0	0.0	0.0	0.0				
	878	2.990000996671634	0.0	0.0	0.0	1.0	4.0	1	2.99	0.0	0.0	0.0	0.0	0.0	0.0	0.0	0.0	0.0	0.0	0.0	0.0				
	884	2.4900009968765313	0.0	0.0	0.0	1.0	3.0	1	2.49	0.0	0.0	0.0	0.0	0.0	0.0	0.0	0.0	0.0	0.0	0.0	0.0				
	892	31.870000996828573	32.142036912155966	42.0	6.0	1.0	38.0	1	31.869999999999997	0.0	0.0	0.0	0.0	0.0	0.0	0.0	0.0	0.0	0.0	0.0	0.0				
	895	8.960000996755484	7.000000000000001	7.000000000000001	7.000000000000001	1.0	11.0	1	8.96	0.0	0.0	0.0	0.0	0.0	0.0	0.0	0.0	0.0	0.0	0.0	0.0				
	901	3.680000996732752	2.0	2.0	2.0	1.0	4.0	1	3.6799999999999997	0.0	0.0	0.0	0.0	0.0	0.0	0.0	0.0	0.0	0.0	0.0	0.0				
	910	4.580000996748724	3.0	3.0	3.0	1.0	6.0	1	4.58	0.0	0.0	0.0	0.0	0.0	0.0	0.0	0.0	0.0	0.0	0.0	0.0				
	911	370.0000036901683	83.02231742163032	224.00000000000003	0.0	1.0	415.0	1	370.0	0.0	0.0	0.0	0.0	0.0	0.0	0.0	0.0	0.0	0.0	0.0	0.0				
	912	370.0000034381479	90.88049984931618	224.00000000000003	0.0	1.0	415.0	1	370.0	0.0	0.0	0.0	0.0	0.0	0.0	0.0	0.0	0.0	0.0	0.0	0.0				
	914	15.930000996785509	10.0	10.0	10.0	1.0	19.0	1	15.93	0.0	0.0	0.0	0.0	0.0	0.0	0.0	0.0	0.0	0.0	0.0	0.0				
	917	2.0900009966776256	0.0	0.0	0.0	1.0	3.0	1	2.09	0.0	0.0	0.0	0.0	0.0	0.0	0.0	0.0	0.0	0.0	0.0	0.0				
	919	21.910000996120147	12.0	12.0	12.0	1.0	26.0	1	21.91	0.0	0.0	0.0	0.0	0.0	0.0	0.0	0.0	0.0	0.0	0.0	0.0				
	920	1.9900009966163674	0.0	0.0	0.0	1.0	2.0	1	1.9900000000000002	0.0	0.0	0.0	0.0	0.0	0.0	0.0	0.0	0.0	0.0	0.0	0.0				
	929	63.73000099668216	29.0000008716795	50.0	28.999999999999996	1.0	77.0	1	63.73	0.0	0.0	0.0	0.0	0.0	0.0	0.0	0.0	0.0	0.0	0.0	0.0				
	959	2.4900009969897745	1.0	1.0	1.0	1.0	3.0	1	2.49	0.0	0.0	0.0	0.0	0.0	0.0	0.0	0.0	0.0	0.0	0.0	0.0				
	968	0.7000009969012861	0.0	0.0	0.0	1.0	1.0	1	0.7	0.0	0.0	0.0	0.0	0.0	0.0	0.0	0.0	0.0	0.0	0.0	0.0				
	993	3.980000996982289	1.0	1.0	1.0	1.0	5.0	1	3.9800000000000004	0.0	0.0	0.0	0.0	0.0	0.0	0.0	0.0	0.0	0.0	0.0	0.0				
	994	1.9900009969822916	1.0	1.0	1.0	1.0	2.0	1	1.9900000000000002	0.0	0.0	0.0	0.0	0.0	0.0	0.0	0.0	0.0	0.0	0.0	0.0				
	995	-9.651806603148782e-7	37.9999990439839	38.0	0.0	1.0	60.0	1	100.0	0.0	0.0	0.0	0.0	0.0	0.0	0.0	0.0	0.0	0.0	0.0	0.0				
	996	-9.272499970666671e-7	2.110097161561041	38.0	0.0	1.0	60.0	1	50.0	0.0	0.0	0.0	0.0	0.0	0.0	0.0	0.0	0.0	0.0	0.0	0.0				
	997	-9.587186081156973e-7	38.0000002619773	38.0	0.0	1.0	60.0	1	50.0	0.0	0.0	0.0	0.0	0.0	0.0	0.0	0.0	0.0	0.0	0.0	0.0				
	1004	4.280000996816325	3.0	3.0	3.0	1.0	5.0	1	4.28	0.0	0.0	0.0	0.0	0.0	0.0	0.0	0.0	0.0	0.0	0.0	0.0				
	1024	0.10000099683537694	0.0	0.0	0.0	1.0	0.0	1	0.1	0.0	0.0	0.0	0.0	0.0	0.0	0.0	0.0	0.0	0.0	0.0	0.0				
	1027	24.900000996683264	13.0	13.0	13.0	1.0	30.0	1	24.9	0.0	0.0	0.0	0.0	0.0	0.0	0.0	0.0	0.0	0.0	0.0	0.0				
	1028	2.9900009966826007	3.0	3.0	3.0	1.0	4.0	1	2.99	0.0	0.0	0.0	0.0	0.0	0.0	0.0	0.0	0.0	0.0	0.0	0.0				
	1029	24.900000996691833	14.000000000000002	14.000000000000002	14.000000000000002	1.0	30.0	1	24.9	0.0	0.0	0.0	0.0	0.0	0.0	0.0	0.0	0.0	0.0	0.0	0.0				
	1053	59.76000099674813	28.733259693307456	53.0	0.0	1.0	72.0	1	59.760000000000005	0.0	0.0	0.0	0.0	0.0	0.0	0.0	0.0	0.0	0.0	0.0	0.0				
	1054	29.88000099697131	2.6557228354343194	31.0	0.0	1.0	36.0	1	29.880000000000003	0.0	0.0	0.0	0.0	0.0	0.0	0.0	0.0	0.0	0.0	0.0	0.0				
	1105	7.970000996812676	10.0	10.0	10.0	1.0	10.0	1	7.969999999999999	0.0	0.0	0.0	0.0	0.0	0.0	0.0	0.0	0.0	0.0	0.0	0.0				
	1106	22.91000099680169	13.0	13.0	13.0	1.0	28.0	1	22.91	0.0	0.0	0.0	0.0	0.0	0.0	0.0	0.0	0.0	0.0	0.0	0.0				
	1107	10.56000099672434	3.0	3.0	3.0	1.0	13.0	1	10.56	0.0	0.0	0.0	0.0	0.0	0.0	0.0	0.0	0.0	0.0	0.0	0.0				
	1138	44.82000099666921	32.37546403334885	41.0	0.0	1.0	54.0	1	44.82	0.0	0.0	0.0	0.0	0.0	0.0	0.0	0.0	0.0	0.0	0.0	0.0				
	1140	230.0000022879804	61.32944167510635	199.0	-87.0	1.0	252.0	1	229.99999999999997	0.0	0.0	0.0	0.0	0.0	0.0	0.0	0.0	0.0	0.0	0.0	0.0				
	1141	9.384212785427927e-7	75.81799166038404	190.0	-89.0	1.0	251.0	1	225.0	0.0	0.0	0.0	0.0	0.0	0.0	0.0	0.0	0.0	0.0	0.0	0.0				
	1175	37.84000099684776	20.0	20.0	20.0	1.0	45.0	1	37.84	0.0	0.0	0.0	0.0	0.0	0.0	0.0	0.0	0.0	0.0	0.0	0.0				
	1182	-9.780329911661249e-7	21.624548921952506	125.0	-50.0	1.0	133.0	1	120.0	0.0	0.0	0.0	0.0	0.0	0.0	0.0	0.0	0.0	0.0	0.0	0.0				
	1183	120.00000119334402	20.670796416481814	125.0	-50.0	1.0	133.0	1	120.0	0.0	0.0	0.0	0.0	0.0	0.0	0.0	0.0	0.0	0.0	0.0	0.0				
	1184	48.283025245187055	88.98186847907589	125.0	-50.0	1.0	133.0	1	120.0	0.0	0.0	0.0	0.0	0.0	0.0	0.0	0.0	0.0	0.0	0.0	0.0				
	1191	106.56000106239114	30.146418525125473	129.0	-47.0	1.0	128.0	1	106.56000000000002	0.0	0.0	0.0	0.0	0.0	0.0	0.0	0.0	0.0	0.0	0.0	0.0				
	1192	250.00000249381424	49.68907107645461	125.0	-50.0	1.0	123.0	1	250.0	0.0	0.0	0.0	0.0	0.0	0.0	0.0	0.0	0.0	0.0	0.0	0.0				
	1201	99.59000099666187	0.003151326700470426	90.0	0.0	1.0	120.0	1	99.59	0.0	0.0	0.0	0.0	0.0	0.0	0.0	0.0	0.0	0.0	0.0	0.0				
	1202	99.59000099666187	67.0298666739911	90.0	0.0	1.0	120.0	1	99.59	0.0	0.0	0.0	0.0	0.0	0.0	0.0	0.0	0.0	0.0	0.0	0.0				
	1203	99.59000099667318	40.20415020880211	90.0	0.0	1.0	120.0	1	99.59	0.0	0.0	0.0	0.0	0.0	0.0	0.0	0.0	0.0	0.0	0.0	0.0				
	1232	51.79000099683216	28.158896368605614	41.0	0.0	1.0	62.0	1	51.790000000000006	0.0	0.0	0.0	0.0	0.0	0.0	0.0	0.0	0.0	0.0	0.0	0.0				
	1233	14.940000996844491	28.91844339186529	41.0	0.0	1.0	18.0	1	14.940000000000001	0.0	0.0	0.0	0.0	0.0	0.0	0.0	0.0	0.0	0.0	0.0	0.0				
	1244	18.92000099678362	20.0	20.0	20.0	1.0	23.0	1	18.92	0.0	0.0	0.0	0.0	0.0	0.0	0.0	0.0	0.0	0.0	0.0	0.0				
	1247	15.930000996780072	12.0	12.0	12.0	1.0	19.0	1	15.93	0.0	0.0	0.0	0.0	0.0	0.0	0.0	0.0	0.0	0.0	0.0	0.0				
	1250	197.19000196864616	59.82146349946172	151.0	0.0	1.0	237.0	1	197.19	0.0	0.0	0.0	0.0	0.0	0.0	0.0	0.0	0.0	0.0	0.0	0.0				
	1268	0.5000009968311948	0.0	0.0	0.0	1.0	1.0	1	0.5	0.0	0.0	0.0	0.0	0.0	0.0	0.0	0.0	0.0	0.0	0.0	0.0				
	1316	1.0000009968395271	0.0	0.0	0.0	1.0	1.0	1	1.0	0.0	0.0	0.0	0.0	0.0	0.0	0.0	0.0	0.0	0.0	0.0	0.0				
	1325	1.390000996674453	0.0	0.0	0.0	1.0	2.0	1	1.39	0.0	0.0	0.0	0.0	0.0	0.0	0.0	0.0	0.0	0.0	0.0	0.0				
	1349	1.4900009971089696	0.0	0.0	0.0	1.0	2.0	1	1.49	0.0	0.0	0.0	0.0	0.0	0.0	0.0	0.0	0.0	0.0	0.0	0.0				
	1356	1.0000009967968813	2.0	2.0	2.0	1.0	1.0	1	1.0	0.0	0.0	0.0	0.0	0.0	0.0	0.0	0.0	0.0	0.0	0.0	0.0				
	1359	0.800000996949596	1.0	1.0	1.0	1.0	1.0	1	0.8	0.0	0.0	0.0	0.0	0.0	0.0	0.0	0.0	0.0	0.0	0.0	0.0				
	1393	12.750000996915997	-5.132860535469496e-7	11.0	0.0	1.0	15.0	1	12.75	0.0	0.0	0.0	0.0	0.0	0.0	0.0	0.0	0.0	0.0	0.0	0.0				
	1403	4.28000099675273	1.0	1.0	1.0	1.0	5.0	1	4.28	0.0	0.0	0.0	0.0	0.0	0.0	0.0	0.0	0.0	0.0	0.0	0.0				
	1416	359.8316109323378	35.81190833909055	180.0	10.0	1.0	246.0	1	371.0	0.0	0.0	0.0	0.0	0.0	0.0	0.0	0.0	0.0	0.0	0.0	0.0				
	1417	120.00000116243486	30.045599322212013	120.0	5.0	1.0	123.0	1	120.0	0.0	0.0	0.0	0.0	0.0	0.0	0.0	0.0	0.0	0.0	0.0	0.0				
	1418	20.000000949878594	38.43891937347693	90.0	5.0	1.0	123.0	1	20.0	0.0	0.0	0.0	0.0	0.0	0.0	0.0	0.0	0.0	0.0	0.0	0.0				
	1426	495.00000488822826	31.913192602950087	68.0	27.0	1.0	106.0	1	495.0	0.0	0.0	0.0	0.0	0.0	0.0	0.0	0.0	0.0	0.0	0.0	0.0				
	1429	0.20000099679540512	0.0	0.0	0.0	1.0	0.0	1	0.2	0.0	0.0	0.0	0.0	0.0	0.0	0.0	0.0	0.0	0.0	0.0	0.0				
	1469	0.6000009969396011	0.0	0.0	0.0	1.0	1.0	1	0.6	0.0	0.0	0.0	0.0	0.0	0.0	0.0	0.0	0.0	0.0	0.0	0.0				
	1475	2.0900009967794895	2.0	2.0	2.0	1.0	3.0	1	2.09	0.0	0.0	0.0	0.0	0.0	0.0	0.0	0.0	0.0	0.0	0.0	0.0				
	1504	31.17000099679583	2.0	2.0	2.0	1.0	37.0	1	31.17	0.0	0.0	0.0	0.0	0.0	0.0	0.0	0.0	0.0	0.0	0.0	0.0				
	1505	48.80000099678649	4.0	4.0	4.0	1.0	59.0	1	48.8	0.0	0.0	0.0	0.0	0.0	0.0	0.0	0.0	0.0	0.0	0.0	0.0				
	1514	2.2900009939913772	1.0	1.0	1.0	1.0	3.0	1	2.29	0.0	0.0	0.0	0.0	0.0	0.0	0.0	0.0	0.0	0.0	0.0	0.0				
	1534	0.30000099677828357	0.0	0.0	0.0	1.0	0.0	1	0.3	0.0	0.0	0.0	0.0	0.0	0.0	0.0	0.0	0.0	0.0	0.0	0.0				
	1536	-9.593691401312085e-7	32.77548856632605	190.0	-89.0	1.0	251.0	1	225.0	0.0	0.0	0.0	0.0	0.0	0.0	0.0	0.0	0.0	0.0	0.0	0.0				
	1537	225.00000224337944	69.36774406780856	202.99999999999997	-95.0	1.0	255.0	1	225.0	0.0	0.0	0.0	0.0	0.0	0.0	0.0	0.0	0.0	0.0	0.0	0.0				
	1538	215.00000214011342	26.139105540905344	190.0	-89.0	1.0	255.0	1	215.0	0.0	0.0	0.0	0.0	0.0	0.0	0.0	0.0	0.0	0.0	0.0	0.0				
	1542	8.960000996786642	3.0	3.0	3.0	1.0	11.0	1	8.96	0.0	0.0	0.0	0.0	0.0	0.0	0.0	0.0	0.0	0.0	0.0	0.0				
	1543	1.200000996713628	0.0	0.0	0.0	1.0	1.0	1	1.2	0.0	0.0	0.0	0.0	0.0	0.0	0.0	0.0	0.0	0.0	0.0	0.0				
	1550	1.7900009967411878	1.0	1.0	1.0	1.0	2.0	1	1.79	0.0	0.0	0.0	0.0	0.0	0.0	0.0	0.0	0.0	0.0	0.0	0.0				
	1566	54.770000996824386	23.861937421435655	47.0	20.0	1.0	66.0	1	54.77000000000001	0.0	0.0	0.0	0.0	0.0	0.0	0.0	0.0	0.0	0.0	0.0	0.0				
	1587	63.74000099677918	27.0	27.0	27.0	1.0	77.0	1	63.739999999999995	0.0	0.0	0.0	0.0	0.0	0.0	0.0	0.0	0.0	0.0	0.0	0.0				
	1600	17.430000996729053	3.0	3.0	3.0	1.0	21.0	1	17.43	0.0	0.0	0.0	0.0	0.0	0.0	0.0	0.0	0.0	0.0	0.0	0.0				
	1602	120.00000115648064	18.99021329235214	90.0	0.0	1.0	144.0	1	120.0	0.0	0.0	0.0	0.0	0.0	0.0	0.0	0.0	0.0	0.0	0.0	0.0				
	1603	120.00000118724921	51.581120286532055	90.0	0.0	1.0	144.0	1	120.0	0.0	0.0	0.0	0.0	0.0	0.0	0.0	0.0	0.0	0.0	0.0	0.0				
	1609	0.3000009974327489	0.0	0.0	0.0	1.0	0.0	1	0.3	0.0	0.0	0.0	0.0	0.0	0.0	0.0	0.0	0.0	0.0	0.0	0.0				
	1617	2.0000009971293053	0.0	0.0	0.0	1.0	2.0	1	2.0	0.0	0.0	0.0	0.0	0.0	0.0	0.0	0.0	0.0	0.0	0.0	0.0				
	1620	1.6000009971319122	0.0	0.0	0.0	1.0	2.0	1	1.6	0.0	0.0	0.0	0.0	0.0	0.0	0.0	0.0	0.0	0.0	0.0	0.0				
...
];

%% branch data
%    f_bus    t_bus    r    x    b    rateA    rateB    rateC    ratio    angle    status    angmin    angmax
mpc.branch = [
	16	1	0.00155	0.01169	0.0182	160.0	160.0	160.0	0	0	1	-60.0001403060998	60.0001403060998	89.13280922355123	11.387688134135173	-89.0283370403191	-12.781994923010146				
	355	1	0.00157	0.06612	0.0	160.0	160.0	160.0	1.0099	0.0	1	-60.0001403060998	60.0001403060998	-88.92216714862622	-8.310687127638454	89.0283370403191	12.781994923010146				
	17	2	0.00155	0.01169	0.0182	160.0	160.0	160.0	0	0	1	-60.0001403060998	60.0001403060998	150.90825489274496	28.103522005687736	-150.59896951098915	-27.91552524722348				
	354	2	0.00157	0.06612	0.0	160.0	160.0	160.0	1.022	0.0	1	-60.0001403060998	60.0001403060998	-150.28491093898597	-14.689058507828518	150.59896951098915	27.91552524722348				
	10	3	0.01068	0.07895	0.1226	274.0	274.0	274.0	0	0	1	-60.0001403060998	60.0001403060998	143.50737487954623	22.709389950919924	-141.64284635488815	-23.618847525399183				
	219	3	0.00165	0.06736	0.0	160.0	160.0	160.0	1.027	0.0	1	-60.0001403060998	60.0001403060998	-53.46508603673301	-14.259814769182075	53.50930341336987	16.06495567236881				
	220	3	0.00165	0.06736	0.0	160.0	160.0	160.0	0.9955	0.0	1	-60.0001403060998	60.0001403060998	-88.02269830102377	-3.028743378054867	88.13354294151827	7.553891853030372				
	7	4	0.01674	0.09711	0.14423	377.0	377.0	377.0	0	0	1	-60.0001403060998	60.0001403060998	-248.9769163573644	51.49500156705334	258.7397307098491	-11.24383896165818				
	11	4	0.00293	0.01599	0.02478	335.0	335.0	335.0	0	0	1	-60.0001403060998	60.0001403060998	180.11408133062554	9.012567871264878	-179.29276478360973	-7.391553290546775				
	14	4	0.00442	0.03223	0.04985	463.99999999999994	463.99999999999994	463.99999999999994	0	0	1	-60.0001403060998	60.0001403060998	205.11393448443874	-45.02504389191155	-203.40605844931906	51.78835518439412				
	16	4	0.00888	0.06665	0.08896	377.0	377.0	377.0	0	0	1	-60.0001403060998	60.0001403060998	229.73481862344875	19.44642404370961	-225.78974222547578	-0.28839704238103575				
	22	4	0.00783	0.043	0.04962	350.0	350.0	350.0	0	0	1	-60.0001403060998	60.0001403060998	-172.68531358854815	63.281593308189855	174.96955537978567	-56.494196202290716				
	245	4	0.00165	0.06901	0.0	160.0	160.0	160.0	1.0594	0.0	1	-60.0001403060998	60.0001403060998	-112.12723485899825	-16.369198459937113	112.31703228269865	24.307331920280216				
	246	4	0.00165	0.06901	0.0	160.0	160.0	160.0	1.0448	0.0	1	-60.0001403060998	60.0001403060998	-62.40616726817374	3.023197506647549	62.46224708607117	-0.6777016077976252				
	5	6	0.00064	0.0305	0.0	400.0	400.0	400.0	1.0435	-0.6	1	-60.0001403060998	60.0001403060998	-286.48831062574	18.020241006393146	286.99291547285355	6.027333738861803				
	7	5	0.00525	0.03988	0.06195	381.0	381.0	381.0	0	0	1	-60.0001403060998	60.0001403060998	-107.34508188146195	-5.044939870950664	107.88349833851376	2.1288616712696524				
	10	5	0.01459	0.11219	0.16553	381.0	381.0	381.0	0	0	1	-60.0001403060998	60.0001403060998	-0.47334337108412095	32.652175625287114	0.6907921165050277	-50.596231150663776				
	309	5	0.00165	0.0686	0.0	160.0	160.0	160.0	1.0646	0.0	1	-60.0001403060998	60.0001403060998	-88.54894169441494	-19.6587979546607	88.67183867263115	24.768332927770583				
	309	5	0.00165	0.0686	0.0	160.0	160.0	160.0	1.0523	0.0	1	-60.0001403060998	60.0001403060998	-89.12624046936611	-0.85845944191976	89.24218149809002	5.678795545230384				
	6	8	0.00112	0.01329	0.34125	1316.0	1316.0	1316.0	0	0	1	-60.0001403060998	60.0001403060998	-444.15602789359525	15.622388300946563	446.28212780572494	-26.133995139680827				
	6	9	0.00299	0.03675	0.9184	1427.0	1427.0	1427.0	0	0	1	-60.0001403060998	60.0001403060998	133.65102434308142	-92.35236545262245	-133.08368610144325	2.0938285391642926				
	15	6	0.00298	0.03417	0.93504	1427.0	1427.0	1427.0	0	0	1	-60.0001403060998	60.0001403060998	-90.90549203086455	-80.8651221278325	91.18060008149256	-12.332022840159608				
	31	6	0.0015	0.01506	0.4032	1385.0	1385.0	1385.0	0	0	1	-60.0001403060998	60.0001403060998	316.69752509283995	-74.96283394464027	-315.20306515176105	48.01116526949388				
	310	6	0.0015	0.06188	0.0	250.0	250.0	250.0	1.0613	0.0	1	-60.0001403060998	60.0001403060998	-246.63751923922322	1.9821378636521034	247.53455314792876	35.02350098347981				
	12	7	0.01211	0.08742	0.14017	381.0	381.0	381.0	0	0	1	-60.0001403060998	60.0001403060998	-52.728953310703986	10.847558759582816	53.06150489986493	-24.32602648679732				
	13	7	0.00205	0.01326	0.02243	335.0	335.0	335.0	0	0	1	-60.0001403060998	60.0001403060998	-3.4700639065678844	37.80663962929171	3.4978878763023484	-40.15883415951199				
	19	7	0.0057	0.0407	0.06021	323.0	323.0	323.0	0	0	1	-60.0001403060998	60.0001403060998	-55.782275199374034	23.824752566319866	55.975153539941935	-29.25998676607132				
	21	7	0.00093	0.00651	0.01113	160.0	160.0	160.0	0	0	1	-60.0001403060998	60.0001403060998	-115.59688574587572	15.079063948017074	115.70952278476237	-15.541330538889103				
	29	7	0.01269	0.07498	0.1302	362.0	362.0	362.0	0	0	1	-60.0001403060998	60.0001403060998	144.78879606778708	11.03685731161017	-142.49308628340384	-12.458350988712558				
	321	7	0.00041	0.03368	0.0	250.0	250.0	250.0	1.0323	0.0	1	-60.0001403060998	60.0001403060998	-147.33987747636422	0.5187361259384161	147.41929477380424	6.005104307671513				
	322	7	0.00165	0.06775	0.0	160.0	160.0	160.0	1.0569	0.0	1	-60.0001403060998	60.0001403060998	-122.85855897763153	-57.25196709543885	123.15172064755433	69.28936293620811				
	8	18	0.00336	0.03977	1.02163	1316.0	1316.0	1316.0	0	0	1	-60.0001403060998	60.0001403060998	-446.28212780572494	26.133995139680827	452.8618526327361	-55.364213627078264				
	332	9	0.00087	0.05244	-0.02144	330.0	330.0	330.0	1.0781	0.0	1	-60.0001403060998	60.0001403060998	-132.93990260701014	13.065558843293099	133.08368610144325	-2.0938285391642926				
	171	10	0.01409	0.10413	0.15972	463.99999999999994	463.99999999999994	463.99999999999994	0	0	1	-60.0001403060998	60.0001403060998	-136.7756620982481	-32.31872859267379	139.1844669954604	31.288032635021235				
	346	10	0.00124	0.06839	0.0	160.0	160.0	160.0	1.0054	0.0	1	-60.0001403060998	60.0001403060998	-8.105123700171287	6.65587691782271	8.106222785254824	-6.5952588300293975				
	347	10	0.00124	0.06839	0.0	160.0	160.0	160.0	1.024	0.0	1	-60.0001403060998	60.0001403060998	-97.95252542265588	-21.529407775841726	98.0567826957729	27.27953270203035				
	16	11	0.0057	0.03952	0.07553	463.99999999999994	463.99999999999994	463.99999999999994	0	0	1	-60.0001403060998	60.0001403060998	314.05819393724556	18.180565526655094	-309.35576532126936	5.498939094473878				
	17	11	0.0057	0.03952	0.07553	463.99999999999994	463.99999999999994	463.99999999999994	0	0	1	-60.0001403060998	60.0001403060998	353.677889573779	-5.379768841686923	-347.65572561545326	38.27684938567406				
	111	11	0.01068	0.06196	0.09496	394.0	394.0	394.0	0	0	1	-60.0001403060998	60.0001403060998	-232.4381733832356	107.49848866464691	238.242247874233	-85.18218040131732				
	352	11	0.00165	0.06901	0.0	160.0	160.0	160.0	1.0412	0.0	1	-60.0001403060998	60.0001403060998	-139.75893973170253	6.1943403031577144	140.038019077932	5.477941929143106				
	353	11	0.00165	0.06901	0.0	160.0	160.0	160.0	1.0559	0.0	1	-60.0001403060998	60.0001403060998	-98.46865855544961	-20.705647189686527	98.61714265393205	26.915882120761424				
	140	12	0.01465	0.10589	0.17085	463.99999999999994	463.99999999999994	463.99999999999994	0	0	1	-60.0001403060998	60.0001403060998	73.3880734983322	24.833230192510104	-72.59903184545496	-39.40968596754205				
	359	12	0.00155	0.06612	0.0	160.0	160.0	160.0	1.0395	0.0	1	-60.0001403060998	60.0001403060998	-86.0263994304288	-6.935525764474859	86.12883025462334	11.305026471405188				
	360	12	0.00157	0.06612	0.0	160.0	160.0	160.0	1.059	0.0	1	-60.0001403060998	60.0001403060998	-39.17393330144224	-16.194901884214783	39.19915490153561	17.257100736554047				
	29	13	0.01345	0.08114	0.14113	339.0	339.0	339.0	0	0	1	-60.0001403060998	60.0001403060998	134.92476111086592	3.0077841135962258	-132.8318611788285	-6.697805513791079				
	365	13	0.00165	0.06901	0.0	160.0	160.0	160.0	1.0312	0.0	1	-60.0001403060998	60.0001403060998	-63.2239773923809	3.6252749032569254	63.28226559296716	-1.1874150714639746				
	366	13	0.00165	0.06901	0.0	160.0	160.0	160.0	0.9872	0.0	1	-60.0001403060998	60.0001403060998	-72.92905413161459	33.7109196196814	73.01965949242918	-29.921419044036657				
	17	14	0.00384	0.02853	0.04588	463.99999999999994	463.99999999999994	463.99999999999994	0	0	1	-60.0001403060998	60.0001403060998	350.74583669447134	51.52432132826601	-346.6603954605608	-26.490260629166528				
	367	14	0.00157	0.06798	0.0	160.0	160.0	160.0	1.0664	0.0	1	-60.0001403060998	60.0001403060998	-89.91288814569131	-26.251845177626503	90.03894943585811	31.71021874803329				
	368	14	0.00165	0.06901	0.0	160.0	160.0	160.0	1.0777	0.0	1	-60.0001403060998	60.0001403060998	-51.44590418158429	-37.22840466850851	51.507511540263984	39.80508577304479				
	18	15	0.00358	0.04262	1.0944	1662.0	1662.0	1662.0	0	0	1	-60.0001403060998	60.0001403060998	624.4462393573501	7.968364498423752	-610.9714253919068	39.55699766001114				
	15	165	0.00207	0.02474	0.664	831.0	831.0	831.0	0	0	1	-60.0001403060998	60.0001403060998	519.1940352395218	-20.228250737114106	-513.6971661137717	18.868028979711394				
	374	15	0.0015	0.06188	0.0	250.0	250.0	250.0	1.1502	0.0	1	-60.0001403060998	60.0001403060998	-182.13415500698054	-38.899550093253524	182.68288218324952	61.53637520493547				
	16	18	0.00036	0.02519	0.0	500.0	500.0	500.0	1.0605	0.0	1	-60.0001403060998	60.0001403060998	-38.00058462895715	43.23135887787894	38.011745674435325	-42.45039572345007				
	16	73	0.00909	0.0624	0.11142	463.99999999999994	463.99999999999994	463.99999999999994	0	0	1	-60.0001403060998	60.0001403060998	72.93877003954144	2.4783955640812225	-72.53002046666143	-12.935452472783068				
	17	18	0.00036	0.02519	0.0	500.0	500.0	500.0	1.0607	0.0	1	-60.0001403060998	60.0001403060998	25.909762811116387	9.727530227108256	-25.907142566770496	-9.54418590746016				
	17	74	0.00868	0.06405	0.09699	463.99999999999994	463.99999999999994	463.99999999999994	0	0	1	-60.0001403060998	60.0001403060998	125.60826681480539	-8.633771050888075	-124.45096833929816	5.750949087078506				
	20	18	0.00063	0.00749	0.39226	1427.0	1427.0	1427.0	0	0	1	-60.0001403060998	60.0001403060998	-400.64767462967455	69.99318091194239	401.655394716857	-99.24352911743739				
	75	18	0.00219	0.02369	0.59584	1434.0	1434.0	1434.0	0	0	1	-60.0001403060998	60.0001403060998	-208.1824849865843	-1.0160507444408609	209.10542299285373	-51.48697611943489				
	18	76	0.00137	0.01625	0.41184	1662.0	1662.0	1662.0	0	0	1	-60.0001403060998	60.0001403060998	305.81452408596004	-48.572006965261735	-304.5815894729402	20.00682609588429				
	18	101	0.00231	0.02769	0.70144	1662.0	1662.0	1662.0	0	0	1	-60.0001403060998	60.0001403060998	368.6619881462158	-70.44599322129255	-365.6391460592555	32.80731423655175				
	124	19	0.01696	0.12366	0.19699	463.99999999999994	463.99999999999994	463.99999999999994	0	0	1	-60.0001403060998	60.0001403060998	49.26578308693303	20.506160608207303	-48.785022651060515	-40.35570104519369				
	425	19	0.00165	0.06818	0.0	160.0	160.0	160.0	1.0241	0.0	1	-60.0001403060998	60.0001403060998	-104.40495108820957	-9.822583479784075	104.56729785043454	16.530948478873828				
	67	20	0.00331	0.03425	0.85888	831.0	831.0	831.0	0	0	1	-60.0001403060998	60.0001403060998	-194.00363417164888	4.657582281202541	195.24471421842472	-83.17103119563004				
	447	20	0.00137	0.06119	-0.01504	250.0	250.0	250.0	1.0796	0.0	1	-60.0001403060998	60.0001403060998	-119.79956370144565	13.17082110856541	119.98673896816072	-3.219096195815397				
	448	20	0.00137	0.06119	-0.01504	250.0	250.0	250.0	1.0923	0.0	1	-60.0001403060998	60.0001403060998	-85.31830996261775	-10.451295930112288	85.4162214430891	16.396946479503054				
	502	21	0.00165	0.07107	0.0	160.0	160.0	160.0	0.9922	0.0	1	-60.0001403060998	60.0001403060998	-115.39732849947997	23.67453879731819	115.59688574587572	-15.079063948017074				
	112	22	0.00465	0.02618	0.02962	362.0	362.0	362.0	0	0	1	-60.0001403060998	60.0001403060998	-147.58615643723883	139.53556566385396	149.16469845326964	-134.2064856268714				
	526	22	0.00165	0.06901	0.0	160.0	160.0	160.0	1.0685	0.0	1	-60.0001403060998	60.0001403060998	-37.854774914905036	-53.90759565981097	37.92016776503855	56.64260207660728				
	527	22	0.00165	0.06901	0.0	160.0	160.0	160.0	1.0424	0.0	1	-60.0001403060998	60.0001403060998	14.405341744945806	-14.04016488512302	-14.399552629760048	14.28229024207425				
	37	23	0.01163	0.07031	0.1058	394.0	394.0	394.0	0	0	1	-60.0001403060998	60.0001403060998	-24.20675648903731	1.0015113689821775	24.27219090474806	-12.516968494039146				
	46	23	0.00837	0.04868	0.07348	457.0	457.0	457.0	0	0	1	-60.0001403060998	60.0001403060998	23.352224987215376	16.513825348601376	-23.28111663479828	-24.446188568262382				
	53	23	0.01122	0.06558	0.09835	274.0	274.0	274.0	0	0	1	-60.0001403060998	60.0001403060998	92.59150369801056	-26.47487398208877	-91.68322288402189	20.781357515856175				
	540	23	0.0014	0.0668	0.0	160.0	160.0	160.0	1.0182	0.0	1	-60.0001403060998	60.0001403060998	-90.58642719200944	-11.137377408026941	90.69214861407211	16.18179954644535				
	54	24	0.00769	0.05727	0.08789	160.0	160.0	160.0	0	0	1	-60.0001403060998	60.0001403060998	50.14831742105594	-7.800636377663668	-49.974528113655815	-0.7020360944803435				
	545	24	0.00151	0.06715	0.0	160.0	160.0	160.0	1.0161	0.0	1	-60.0001403060998	60.0001403060998	-49.940634381458956	0.80522491016816	49.974528113655815	0.7020360944803435				
	41	25	0.00556	0.04145	0.0636	274.0	274.0	274.0	0	0	1	-60.0001403060998	60.0001403060998	94.69933626065311	-5.077296538559532	-94.25560095823971	1.2620064924336967				
	53	25	0.00452	0.03368	0.05169	463.99999999999994	463.99999999999994	463.99999999999994	0	0	1	-60.0001403060998	60.0001403060998	-120.74181974132863	11.801942535417483	121.34234184883879	-13.089652796094633				
	54	25	0.00019	0.0014	0.00213	463.99999999999994	463.99999999999994	463.99999999999994	0	0	1	-60.0001403060998	60.0001403060998	91.73048784356963	2.624188649614637	-91.71615576810713	-2.7563539981505314				
	564	25	0.00157	0.07808	0.0	160.0	160.0	160.0	1.0276	0.0	1	-60.0001403060998	60.0001403060998	-64.56766518871183	-11.513034887029603	64.62941487750805	14.584000301811468				
	38	26	0.00698	0.05196	0.07967	160.0	160.0	160.0	0	0	1	-60.0001403060998	60.0001403060998	66.53999251244741	7.003180650386787	-66.25777961287858	-13.807052943316947				
	568	26	0.00149	0.06616	0.0	160.0	160.0	160.0	1.013	0.0	1	-60.0001403060998	60.0001403060998	-66.19615933276314	-11.070947082620371	66.25777961287858	13.807052943316947				
	28	27	0.0	0.0001	0.0	876.0	876.0	876.0	0	0	1	-60.0001403060998	60.0001403060998	79.41099089599717	-16.63691642116776	-79.41099089599717	16.64273630416662				
	33	27	0.0024	0.01494	0.02253	160.0	160.0	160.0	0	0	1	-60.0001403060998	60.0001403060998	-101.49617713964625	-21.07467209765171	101.72530885581035	19.964968274344685				
	48	27	0.01213	0.06215	0.09371	362.0	362.0	362.0	0	0	1	-60.0001403060998	60.0001403060998	-154.08220811106406	44.61827859127409	156.85792106308875	-41.06936990634294				
	27	74	0.01116	0.07231	0.10367	304.0	304.0	304.0	0	0	1	-60.0001403060998	60.0001403060998	-179.17223902290195	4.461665327831642	182.3500651839987	4.193302627639783				
	47	28	0.00248	0.01798	0.02759	463.99999999999994	463.99999999999994	463.99999999999994	0	0	1	-60.0001403060998	60.0001403060998	-92.12491937218138	-16.80351625822493	92.3178640242465	15.095875062866066				
	28	88	0.01488	0.08161	0.1148	362.0	362.0	362.0	0	0	1	-60.0001403060998	60.0001403060998	-171.7288549202437	1.5410413583016964	175.61694537494583	6.476985830874092				
	30	29	0.0	0.0001	0.0	876.0	876.0	876.0	0	0	1	-60.0001403060998	60.0001403060998	-70.7895591250057	-113.92529858429361	70.7895591250057	113.94057122788833				
	29	32	0.00034	0.02097	0.0	500.0	500.0	500.0	1.0619	0.0	1	-60.0001403060998	60.0001403060998	-423.34659076354467	46.128123760503364	423.93673728186104	-9.72996938081487				
	45	29	0.00545	0.04021	0.06699	463.99999999999994	463.99999999999994	463.99999999999994	0	0	1	-60.0001403060998	60.0001403060998	-49.40447124387837	-34.400648751999675	49.56471098000435	27.79236961940462				
	48	29	0.00574	0.04283	0.06573	463.99999999999994	463.99999999999994	463.99999999999994	0	0	1	-60.0001403060998	60.0001403060998	4.249122760238786	-40.776914753678426	-4.179662174199969	33.654488090896166				
	613	29	0.00157	0.06775	0.0	160.0	160.0	160.0	1.0016	0.0	1	-60.0001403060998	60.0001403060998	-2.740507562440982	54.15372390504385	2.77742468168678	-52.56064439618896				
	46	30	0.00545	0.04021	0.06699	463.99999999999994	463.99999999999994	463.99999999999994	0	0	1	-60.0001403060998	60.0001403060998	-49.12402080079579	-34.11964836177071	49.28213150286649	27.49630655314571				
	49	30	0.00707	0.04541	0.06931	362.0	362.0	362.0	0	0	1	-60.0001403060998	60.0001403060998	3.2479002720010164	-38.543691500371295	-3.1735733591667916	30.96482154259002				
	32	31	0.0	0.0001	0.0	1593.0	1593.0	1593.0	0	0	1	-60.0001403060998	60.0001403060998	-735.5595950097844	-32.556297551693255	735.5595950097844	33.07957954910677				
	39	31	0.00176	0.02144	0.57344	1385.0	1385.0	1385.0	0	0	1	-60.0001403060998	60.0001403060998	72.286492599114	-52.37968788523136	-72.18811010908682	-5.61674635853752				
	36	32	0.00167	0.0189	0.54176	498.00000000000006	498.00000000000006	498.00000000000006	0	0	1	-60.0001403060998	60.0001403060998	-309.97768079755207	-78.88606900817872	311.6228577279233	42.28626693250813				
...